84
TS-templated surface (k_internal=0.5)
O 4.105279 -1.298590 -3.855842
H 3.837464 -0.779916 -4.593499
H 3.476721 -2.039896 -3.836141
O 2.928170 -2.123665 -1.185368
H 3.478580 -1.372067 -0.958422
H 3.041215 -2.727007 -0.444492
O 4.019553 -1.621647 1.291986
H 3.695439 -1.059034 0.570342
H 4.026591 -1.071435 2.047319
O 4.915734 -3.361886 3.948225
H 4.674480 -3.843477 3.145304
H 5.525855 -2.646536 2.995619
O 5.249742 1.282462 3.616049
H 5.057429 1.825873 2.803554
H 4.967001 1.697582 4.390811
O -0.063167 -0.732996 1.360560
H 0.400691 -0.952226 0.561007
H -0.936284 -1.157597 1.240417
O 1.057650 -1.586662 -3.630449
H 1.031951 -0.668770 -3.834672
H 1.950102 -1.731658 -3.270275
O 1.240895 -4.923819 1.013525
H 1.073854 -5.495509 0.258740
H 1.104965 -5.502174 1.772101
O 0.245279 -2.944624 3.078286
H 0.990542 -2.378635 3.327320
H 0.159854 -3.535358 3.840375
O 0.392865 -3.857405 -1.746058
H 1.338109 -3.942765 -1.559505
H 0.001514 -3.699685 -0.891895
O 2.725502 -3.986132 -3.314823
H 2.927429 -3.096325 -3.649172
H 2.291407 -3.763578 -2.448536
O -1.348186 -5.511373 -0.341191
H -0.896292 -5.268732 -1.170520
H -0.581501 -5.532188 0.286454
O -0.295284 2.114349 -1.356149
H -1.130043 1.699152 -0.750421
H 0.395108 1.757732 -0.649601
O 1.823581 -2.203648 -6.835807
H 1.010773 -1.764460 -7.149033
H 1.415901 -2.408142 -6.020444
O 2.275660 3.142308 -3.917623
H 1.591548 3.792663 -4.776099
H 1.698600 3.389759 -3.184175
O 2.965623 2.251862 0.079613
H 3.021442 2.853888 -0.662657
H 2.029120 2.073023 0.172102
O -1.999127 -1.807863 -2.810911
H -1.445024 -1.130749 -3.202721
H -2.013808 -1.590233 -1.877340
O 0.941015 -4.712245 5.168894
H 1.718892 -4.656202 4.296982
H 0.317987 -4.209740 4.795219
O -2.545674 -1.824708 0.468473
H -2.409727 -1.656199 -0.463741
H -3.478358 -1.826158 0.594757
O 5.820979 -2.424556 -1.663749
H 5.029711 -2.567611 -2.212230
H 6.095719 -1.538895 -1.901351
O -2.170601 -5.642536 2.704305
H -1.844779 -5.313964 1.844443
H -2.591617 -4.946597 3.080450
O 1.641291 0.857214 -5.534956
H 1.300204 1.376644 -6.352859
H 1.707403 1.622055 -4.739538
O 0.071719 -7.680295 -0.326129
H 0.841800 -7.949048 -0.870048
H -0.249134 -7.081094 -0.706866
O 3.955083 -7.036155 0.221433
H 3.261211 -7.041157 -0.503450
H 3.736287 -6.561115 1.043163
O 0.817872 -1.685686 5.772727
H -0.119396 -1.996927 5.511878
H 0.943473 -1.836766 6.650606
O 0.629218 -4.879336 -5.958981
H 0.262557 -5.809352 -6.027255
H 1.591895 -5.238676 -5.346606
O 2.262892 -7.096206 2.853948
H 2.890927 -7.596321 2.952398
H 2.312610 -6.171368 3.480626
O 5.589551 3.094690 -3.086878
H 5.559781 2.300762 -3.559886
H 5.922218 2.696037 -2.204765
