84
TS-templated surface (k_internal=0.5)
O 4.105279 -1.298590 -3.855842
H 3.837464 -0.779916 -4.593499
H 3.476721 -2.039896 -3.836141
O 2.928170 -2.123665 -1.185368
H 3.478580 -1.372067 -0.958422
H 3.041215 -2.727007 -0.444492
O 4.019553 -1.621647 1.291986
H 3.695439 -1.059034 0.570342
H 4.026591 -1.071435 2.047319
O 5.269929 -3.194994 3.730942
H 4.609254 -3.949925 3.018446
H 5.697272 -3.009808 3.089576
O 5.262931 1.349079 3.533949
H 5.183370 1.694315 2.729619
H 5.216813 1.860418 4.406644
O -0.063167 -0.732996 1.360560
H 0.400691 -0.952226 0.561007
H -0.936284 -1.157597 1.240417
O 1.057650 -1.586662 -3.630449
H 1.031951 -0.668770 -3.834672
H 1.950102 -1.731658 -3.270275
O 1.240895 -4.923819 1.013525
H 1.073854 -5.495509 0.258740
H 1.104965 -5.502174 1.772101
O 0.245279 -2.944624 3.078286
H 0.990542 -2.378635 3.327320
H 0.159854 -3.535358 3.840375
O 0.392865 -3.857405 -1.746058
H 1.338109 -3.942765 -1.559505
H 0.001514 -3.699685 -0.891895
O 2.725502 -3.986132 -3.314823
H 2.927429 -3.096325 -3.649172
H 2.291407 -3.763578 -2.448536
O -1.348186 -5.511373 -0.341191
H -0.896292 -5.268732 -1.170520
H -0.581501 -5.532188 0.286454
O -0.159530 1.886519 -1.287079
H -1.226567 1.532064 -0.900508
H 0.381018 1.790670 -0.553740
O 1.689937 -2.333948 -6.640437
H 1.093821 -1.706198 -7.284240
H 1.447424 -2.199768 -6.033194
O 2.029436 3.313763 -3.974986
H 1.607638 3.732522 -4.680311
H 1.589509 3.449256 -3.246905
O 2.965623 2.251862 0.079613
H 3.021442 2.853888 -0.662657
H 2.029120 2.073023 0.172102
O -1.999127 -1.807863 -2.810911
H -1.445024 -1.130749 -3.202721
H -2.013808 -1.590233 -1.877340
O 1.294897 -4.570758 5.256643
H 1.837584 -4.681411 4.371518
H 0.376060 -4.150301 4.791843
O -2.545674 -1.824708 0.468473
H -2.409727 -1.656199 -0.463741
H -3.478358 -1.826158 0.594757
O 5.820979 -2.424556 -1.663749
H 5.029711 -2.567611 -2.212230
H 6.095719 -1.538895 -1.901351
O -2.322089 -5.429522 2.858253
H -2.126033 -5.441188 1.854337
H -2.759276 -4.836570 3.068737
O 1.403879 0.678230 -5.663310
H 1.404729 1.417733 -6.507216
H 1.445981 1.458552 -4.806735
O 0.204083 -7.680885 -0.373490
H 0.636221 -7.920134 -0.851106
H -0.251467 -7.122030 -0.681142
O 3.941860 -6.818705 0.215043
H 3.188481 -7.040796 -0.382850
H 3.666835 -6.733550 1.035029
O 0.739982 -1.697730 5.768149
H -0.080693 -1.955388 5.555578
H 0.735427 -1.761659 6.749348
O 0.610644 -5.146680 -5.866623
H 0.458517 -5.997676 -6.239968
H 1.464927 -5.307824 -5.293160
O 2.192058 -7.010698 2.810537
H 2.801231 -7.337516 3.044447
H 2.131171 -6.156068 3.409172
O 5.546192 3.085879 -3.080969
H 5.556356 2.293708 -3.637582
H 5.957107 2.896778 -2.242452
